/*--------------------------------*- C++ -*----------------------------------*\
| =========                 |                                                 |
| \\      /  F ield         | OpenFOAM: The Open Source CFD Toolbox           |
|  \\    /   O peration     | Version:  2.3.0                                 |
|   \\  /    A nd           | Web:      www.OpenFOAM.org                      |
|    \\/     M anipulation  |                                                 |
\*---------------------------------------------------------------------------*/
FoamFile
{
    version     2.0;
    format      ascii;
    class       dictionary;
    location    "constant";
    object      RASProperties;
}
// * * * * * * * * * * * * * * * * * * * * * * * * * * * * * * * * * * * * * //

RASModel        dykOmegaBIFComplex;

turbulence      on;

printCoeffs     on;

dykOmegaBIFComplexCoeffs
{
        filter      simple; 	
	rotaxis ( 0 -1 0 1 0 0 0 0 0);
	rotspeed 75.92;
	m 	 3;
}
// ************************************************************************* //
