/*--------------------------------*- C++ -*----------------------------------*\
| =========                 |                                                 |
| \\      /  F ield         | OpenFOAM: The Open Source CFD Toolbox           |
|  \\    /   O peration     | Version:  2.3.0                                 |
|   \\  /    A nd           | Web:      www.OpenFOAM.org                      |
|    \\/     M anipulation  |                                                 |
\*---------------------------------------------------------------------------*/
FoamFile
{
    version     2.0;
    format      ascii;
    class       polyBoundaryMesh;
    location    "constant/polyMesh";
    object      boundary;
}
// * * * * * * * * * * * * * * * * * * * * * * * * * * * * * * * * * * * * * //

11
(
    SHROUD
    {
        type            wall;
        inGroups        1(wall);
        nFaces          76524;
        startFace       9961800;
    }
    IN
    {
        type            wall;
        inGroups        1(wall);
        nFaces          9828;
        startFace       10038324;
    }
    OUT
    {
        type            wall;
        inGroups        1(wall);
        nFaces          15660;
        startFace       10048152;
    }
    HUB
    {
        type            wall;
        inGroups        1(wall);
        nFaces          86352;
        startFace       10063812;
    }
    SHAFT
    {
        type            wall;
        inGroups        1(wall);
        nFaces          7308;
        startFace       10150164;
    }
    BLADE1
    {
        type            wall;
        inGroups        1(wall);
        nFaces          22968;
        startFace       10157472;
    }
    BLADE2
    {
        type            wall;
        inGroups        1(wall);
        nFaces          31320;
        startFace       10180440;
    }
    IN_INLET
    {
        type            wall;
        inGroups        1(wall);
        nFaces          17748;
        startFace       10211760;
    }
    IN_WALL
    {
        type            wall;
        inGroups        1(wall);
        nFaces          17052;
        startFace       10229508;
    }
    IN_OUTLET
    {
        type            wall;
        inGroups        1(wall);
        nFaces          17748;
        startFace       10246560;
    }
    IN_SHAFT
    {
        type            wall;
        inGroups        1(wall);
        nFaces          17052;
        startFace       10264308;
    }
)

// ************************************************************************* //
