/*--------------------------------*- C++ -*----------------------------------*\
| =========                 |                                                 |
| \\      /  F ield         | OpenFOAM: The Open Source CFD Toolbox           |
|  \\    /   O peration     | Version:  2.3.0                                 |
|   \\  /    A nd           | Web:      www.OpenFOAM.org                      |
|    \\/     M anipulation  |                                                 |
\*---------------------------------------------------------------------------*/
FoamFile
{
    version     2.0;
    format      ascii;
    class       polyBoundaryMesh;
    location    "constant/polyMesh";
    object      boundary;
}
// * * * * * * * * * * * * * * * * * * * * * * * * * * * * * * * * * * * * * //

11
(
    SHROUD
    {
        type            wall;
        inGroups        1(wall);
        nFaces          76524;
        startFace       9961800;
    }
    OUT
    {
        type            patch;
        nFaces          15660;
        startFace       10038324;
    }
    HUB
    {
        type            wall;
        inGroups        1(wall);
        nFaces          86352;
        startFace       10053984;
    }
    SHAFT
    {
        type            wall;
        inGroups        1(wall);
        nFaces          7308;
        startFace       10140336;
    }
    BLADE1
    {
        type            wall;
        inGroups        1(wall);
        nFaces          22968;
        startFace       10147644;
    }
    BLADE2
    {
        type            wall;
        inGroups        1(wall);
        nFaces          31320;
        startFace       10170612;
    }
    IN_INLET
    {
        type            patch;
        nFaces          17748;
        startFace       10201932;
    }
    IN_WALL
    {
        type            wall;
        inGroups        1(wall);
        nFaces          17052;
        startFace       10219680;
    }
    IN_SHAFT
    {
        type            wall;
        inGroups        1(wall);
        nFaces          17052;
        startFace       10236732;
    }
    inletout
    {
        type            cyclicAMI;
        inGroups        1(cyclicAMI);
        nFaces          17748;
        startFace       10253784;
        matchTolerance  0.0001;
        transform       noOrdering;
        neighbourPatch  impellerin;
    }
    impellerin
    {
        type            cyclicAMI;
        inGroups        1(cyclicAMI);
        nFaces          9828;
        startFace       10271532;
        matchTolerance  0.0001;
        transform       noOrdering;
        neighbourPatch  inletout;
    }
)

// ************************************************************************* //
