/*--------------------------------*- C++ -*----------------------------------*\
| =========                 |                                                 |
| \\      /  F ield         | OpenFOAM: The Open Source CFD Toolbox           |
|  \\    /   O peration     | Version:  2.1.1                                 |
|   \\  /    A nd           | Web:      www.OpenFOAM.org                      |
|    \\/     M anipulation  |                                                 |
\*---------------------------------------------------------------------------*/
FoamFile
{
    version     2.0;
    format      ascii;
    class       dictionary;
    location    "system";
    object      fvSchemes;
}
// * * * * * * * * * * * * * * * * * * * * * * * * * * * * * * * * * * * * * //

ddtSchemes
{
    default         backward;
}

gradSchemes
{
    default         Gauss linear;
    grad(p)         Gauss linear;
    grad(U)      Gauss linear;
}

divSchemes
{
    default         Gauss linear;
    div(phi,U)   Gauss linearUpwind grad(U);
    div(phi,k)      Gauss linearUpwind grad(k);
    div(phi,epsilon) Gauss linearUpwind grad(epsilon);
    div(phi,omega)  Gauss linearUpwind grad(omega);
    div(phi,R)      Gauss upwind;
    div(R)          Gauss linear;
    div(phi,nuTilda) Gauss upwind;
    div((nuEff*dev(T(grad(U))))) Gauss linear;
    div(phiU,symm(grad(U)))  Gauss linear;
}

laplacianSchemes
{
    default         Gauss linear corrected;

}

interpolationSchemes
{
    default         linear;
    interpolate(U) linear;
}

snGradSchemes
{
    default         corrected;
}

fluxRequired
{
    default         no;
    p               ;
}


// ************************************************************************* //
