/*--------------------------------*- C++ -*----------------------------------*\
| =========                 |                                                 |
| \\      /  F ield         | OpenFOAM: The Open Source CFD Toolbox           |
|  \\    /   O peration     | Version:  2.1.1                                 |
|   \\  /    A nd           | Web:      www.OpenFOAM.org                      |
|    \\/     M anipulation  |                                                 |
\*---------------------------------------------------------------------------*/
FoamFile
{
    version     2.0;
    format      ascii;
    class       dictionary;
    object      sampleDict;
}
// * * * * * * * * * * * * * * * * * * * * * * * * * * * * * * * * * * * * //

// Set output format : choice of
//      xmgr
//      jplot
//      gnuplot
//      raw
//      vtk
//      csv
setFormat raw;

// Surface output format. Choice of
//      null        : suppress output
//      ensight     : Ensight Gold format, one field per case file
//      foamFile    : separate points, faces and values file
//      dx          : DX scalar or vector format
//      vtk         : VTK ascii format
//      raw         : x y z value format for use with e.g. gnuplot 'splot'.
//
// Note:
// other formats such as obj, stl, etc can also be written (by proxy)
// but without any values!
surfaceFormat vtk;



// interpolationScheme. choice of
//      cell          : use cell-centre value only; constant over cells (default)
//      cellPoint     : use cell-centre and vertex values
//      cellPointFace : use cell-centre, vertex and face values.
//      pointMVC      : use point values only (Mean Value Coordinates)
//      cellPatchConstrained : use cell-centre except on boundary faces where
//        it uses the boundary value. For use with e.g. patchCloudSet.
// 1] vertex values determined from neighbouring cell-centre values
// 2] face values determined using the current face interpolation scheme
//    for the field (linear, gamma, etc.)
interpolationScheme cell;

// Fields to sample.
fields
(
   // U
    Ucyl
    //theta
    
);

// Set sampling definition: choice of
//      uniform             evenly distributed points on line
//      face                one point per face intersection
//      midPoint            one point per cell, inbetween two face intersections
//      midPointAndFace     combination of face and midPoint
//
//      polyLine            specified points, not nessecary on line, uses
//                          tracking
//      cloud               specified points, uses findCell
//      triSurfaceMeshPointSet  points of triSurface
//
// axis: how to write point coordinate. Choice of
// - x/y/z: x/y/z coordinate only
// - xyz: three columns
//  (probably does not make sense for anything but raw)
// - distance: distance from start of sampling line (if uses line) or
//             distance from first specified sampling point
//
// type specific:
//      uniform, face, midPoint, midPointAndFace : start and end coordinate
//      uniform: extra number of sampling points
//      polyLine, cloud: list of coordinates
//      patchCloud: list of coordinates and set of patches to look for nearest
sets
(
    
    rR0.5A
    {
        type    cloud;
        axis    xyz;
        points  ((	-0.046649252	0.008949707	0.0029	)
(	-0.046725656	0.008541842	0.0029	)
(	-0.046798494	0.008133325	0.0029	)
(	-0.04686776	0.007724188	0.0029	)
(	-0.046933449	0.00731446	0.0029	)
(	-0.046995557	0.006904175	0.0029	)
(	-0.047054078	0.006493363	0.0029	)
(	-0.047109008	0.006082055	0.0029	)
(	-0.047160342	0.005670283	0.0029	)
(	-0.047208078	0.005258078	0.0029	)
(	-0.047252211	0.004845472	0.0029	)
(	-0.047292737	0.004432496	0.0029	)
(	-0.047329654	0.004019182	0.0029	)
(	-0.047362959	0.003605561	0.0029	)
(	-0.04739265	0.003191665	0.0029	)
(	-0.047418724	0.002777526	0.0029	)
(	-0.047441178	0.002363174	0.0029	)
(	-0.047460013	0.001948642	0.0029	)
(	-0.047475225	0.001533962	0.0029	)
(	-0.047486814	0.001119164	0.0029	)
(	-0.047494779	0.000704281	0.0029	)
(	-0.047499119	0.000289344	0.0029	)
(	-0.047499834	-0.000125615	0.0029	)
(	-0.047496924	-0.000540564	0.0029	)
(	-0.047490389	-0.000955472	0.0029	)
(	-0.04748023	-0.001370307	0.0029	)
(	-0.047466448	-0.001785038	0.0029	)
(	-0.047449042	-0.002199632	0.0029	)
(	-0.047428016	-0.002614059	0.0029	)
(	-0.04740337	-0.003028286	0.0029	)
(	-0.047375106	-0.003442282	0.0029	)
(	-0.047343227	-0.003856015	0.0029	)
(	-0.047307735	-0.004269454	0.0029	)
(	-0.047268632	-0.004682567	0.0029	)
(	-0.047225922	-0.005095323	0.0029	)
(	-0.047179607	-0.005507689	0.0029	)
(	-0.047129692	-0.005919636	0.0029	)
(	-0.047076181	-0.006331131	0.0029	)
(	-0.047019076	-0.006742142	0.0029	)
(	-0.046958383	-0.007152639	0.0029	)
(	-0.046894107	-0.00756259	0.0029	)
(	-0.046826251	-0.007971964	0.0029	)
(	-0.046754822	-0.00838073	0.0029	)
(	-0.046679824	-0.008788856	0.0029	)
(	-0.046601265	-0.009196311	0.0029	)
(	-0.046519148	-0.009603064	0.0029	)
(	-0.046433482	-0.010009085	0.0029	)
(	-0.046344271	-0.010414342	0.0029	)
(	-0.046251524	-0.010818804	0.0029	)
(	-0.046155247	-0.01122244	0.0029	)
(	-0.0461714361	-0.0111556473	0.0029	)
(	-0.0460580867	-0.0116147582	0.0029	)
(	-0.0459401723	-0.0120727185	0.0029	)
(	-0.0458177045	-0.0125294821	0.0029	)
(	-0.0456906963	-0.0129850034	0.0029	)
(	-0.0455591581	-0.0134392385	0.0029	)
(	-0.0454231044	-0.0138921407	0.0029	)
(	-0.0452825494	-0.0143436662	0.0029	)
(	-0.0451375049	-0.0147937699	0.0029	)
(	-0.0449879873	-0.0152424078	0.0029	)
(	-0.0448340108	-0.0156895347	0.0029	)
(	-0.0446755894	-0.0161351067	0.0029	)
(	-0.044512741	-0.0165790789	0.0029	)
(	-0.0443454808	-0.0170214078	0.0029	)
(	-0.0441738248	-0.0174620508	0.0029	)
(	-0.0439977902	-0.0179009621	0.0029	)
(	-0.0438173952	-0.0183380988	0.0029	)
(	-0.043632657	-0.0187734187	0.0029	)
(	-0.0434435938	-0.0192068778	0.0029	)
(	-0.0432502248	-0.0196384327	0.0029	)
(	-0.0430525691	-0.0200680411	0.0029	)
(	-0.0428506464	-0.0204956607	0.0029	)
(	-0.0426444768	-0.0209212484	0.0029	)
(	-0.0424340793	-0.0213447634	0.0029	)
(	-0.042219477	-0.0217661612	0.0029	)
(	-0.0420006888	-0.022185403	0.0029	)
(	-0.0417777383	-0.0226024453	0.0029	)
(	-0.041550648	-0.0230172474	0.0029	)
(	-0.0413194384	-0.0234297686	0.0029	)
(	-0.0410841324	-0.0238399667	0.0029	)
(	-0.040844756	-0.0242478026	0.0029	)
(	-0.0406013304	-0.024653235	0.0029	)
(	-0.0403538804	-0.0250562232	0.0029	)
(	-0.0401024312	-0.0254567283	0.0029	)
(	-0.0398470071	-0.0258547109	0.0029	)
(	-0.0395876332	-0.02625013	0.0029	)
(	-0.0393243348	-0.0266429478	0.0029	)
(	-0.0390571401	-0.027033125	0.0029	)
(	-0.0387860735	-0.027420622	0.0029	)
(	-0.0385111621	-0.0278054014	0.0029	)
(	-0.0382324348	-0.0281874256	0.0029	)
(	-0.0379499175	-0.0285666553	0.0029	)
(	-0.0376636386	-0.0289430536	0.0029	)
(	-0.037373627	-0.0293165828	0.0029	)
(	-0.0370799102	-0.0296872064	0.0029	)
(	-0.0367825191	-0.0300548879	0.0029	)
(	-0.036481482	-0.0304195903	0.0029	)
(	-0.0361768289	-0.0307812778	0.0029	)
(	-0.0358685901	-0.0311399144	0.0029	)
(	-0.0355567955	-0.0314954644	0.0029	)

);
    }
 rR0.5B
    {
        type    cloud;
        axis    xyz;
        points  ((	-0.0310752996	-0.0359245838	0.0029	)
(	-0.0307602802	-0.0361946841	0.0029	)
(	-0.0304429131	-0.0364620222	0.0029	)
(	-0.030123223	-0.0367265768	0.0029	)
(	-0.0298012327	-0.0369883291	0.0029	)
(	-0.0294769694	-0.0372472587	0.0029	)
(	-0.0291504563	-0.0375033454	0.0029	)
(	-0.0288217181	-0.0377565702	0.0029	)
(	-0.0284907801	-0.0380069127	0.0029	)
(	-0.0281576681	-0.0382543558	0.0029	)
(	-0.0278224073	-0.0384988791	0.0029	)
(	-0.0274850226	-0.0387404637	0.0029	)
(	-0.0271455407	-0.0389790917	0.0029	)
(	-0.0268039869	-0.0392147452	0.0029	)
(	-0.026460388	-0.0394474064	0.0029	)
(	-0.0261147701	-0.0396770566	0.0029	)
(	-0.0257671577	-0.0399036783	0.0029	)
(	-0.02541758	-0.0401272559	0.0029	)
(	-0.0250660626	-0.0403477699	0.0029	)
(	-0.0247126315	-0.0405652053	0.0029	)
(	-0.0243573147	-0.0407795447	0.0029	)
(	-0.0240001388	-0.0409907717	0.0029	)
(	-0.0236411312	-0.0411988704	0.0029	)
(	-0.0232803198	-0.0414038248	0.0029	)
(	-0.0229177315	-0.0416056193	0.0029	)
(	-0.0225533943	-0.0418042389	0.0029	)
(	-0.0221873357	-0.0419996688	0.0029	)
(	-0.0218195838	-0.0421918918	0.0029	)
(	-0.0214501665	-0.0423808962	0.0029	)
(	-0.0210791124	-0.0425666656	0.0029	)
(	-0.0207064493	-0.0427491863	0.0029	)
(	-0.0203322066	-0.0429284448	0.0029	)
(	-0.0199564119	-0.0431044273	0.0029	)
(	-0.019579094	-0.0432771196	0.0029	)
(	-0.0192002818	-0.0434465097	0.0029	)
(	-0.0188200049	-0.0436125827	0.0029	)
(	-0.0184382908	-0.0437753285	0.0029	)
(	-0.0180551702	-0.0439347342	0.0029	)
(	-0.0176706718	-0.0440907853	0.0029	)
(	-0.0172848244	-0.0442434721	0.0029	)
(	-0.0168976584	-0.0443927829	0.0029	)
(	-0.0165092022	-0.0445387049	0.0029	)
(	-0.0161194859	-0.0446812286	0.0029	)
(	-0.0157285394	-0.0448203414	0.0029	)
(	-0.0153363936	-0.0449560348	0.0029	)
(	-0.0149430766	-0.0450882959	0.0029	)
(	-0.0145486191	-0.0452171175	0.0029	)
(	-0.0141530508	-0.045342487	0.0029	)
(	-0.0137564029	-0.0454643967	0.0029	)
(	-0.0133587054	-0.0455828364	0.0029	)
(	-0.032746792	0.034407813	0.0029	)
(	-0.033087719	0.034080094	0.0029	)
(	-0.033425367	0.033748997	0.0029	)
(	-0.033759702	0.033414555	0.0029	)
(	-0.034090691	0.033076802	0.0029	)
(	-0.034418301	0.032735769	0.0029	)
(	-0.034742499	0.032391492	0.0029	)
(	-0.035063254	0.032044005	0.0029	)
(	-0.035380533	0.031693341	0.0029	)
(	-0.035694306	0.031339536	0.0029	)
(	-0.036004541	0.030982625	0.0029	)
(	-0.036311207	0.030622642	0.0029	)
(	-0.036614274	0.030259625	0.0029	)
(	-0.036913712	0.029893609	0.0029	)
(	-0.037209492	0.029524629	0.0029	)
(	-0.037501583	0.029152723	0.0029	)
(	-0.037789957	0.028777928	0.0029	)
(	-0.038074586	0.02840028	0.0029	)
(	-0.038355441	0.028019817	0.0029	)
(	-0.038632494	0.027636577	0.0029	)
(	-0.038905718	0.027250598	0.0029	)
(	-0.039175086	0.026861918	0.0029	)
(	-0.039440571	0.026470576	0.0029	)
(	-0.039702147	0.026076609	0.0029	)
(	-0.039959787	0.025680059	0.0029	)
(	-0.040213467	0.025280962	0.0029	)
(	-0.040463161	0.02487936	0.0029	)
(	-0.040708845	0.024475293	0.0029	)
(	-0.040950494	0.024068799	0.0029	)
(	-0.041188083	0.023659919	0.0029	)
(	-0.041421591	0.023248695	0.0029	)
(	-0.041650993	0.022835166	0.0029	)
(	-0.041876266	0.022419374	0.0029	)
(	-0.042097389	0.02200136	0.0029	)
(	-0.04231434	0.021581165	0.0029	)
(	-0.042527096	0.021158831	0.0029	)
(	-0.042735637	0.020734399	0.0029	)
(	-0.042939943	0.020307913	0.0029	)
(	-0.043139992	0.019879414	0.0029	)
(	-0.043335765	0.019448944	0.0029	)
(	-0.043527244	0.019016547	0.0029	)
(	-0.043714408	0.018582265	0.0029	)
(	-0.043897239	0.018146141	0.0029	)
(	-0.044075719	0.017708219	0.0029	)
(	-0.04424983	0.017268541	0.0029	)
(	-0.044419556	0.016827152	0.0029	)
(	-0.044584879	0.016384095	0.0029	)
(	-0.044745783	0.015939414	0.0029	)
(	-0.044902252	0.015493153	0.0029	)
(	-0.04505427	0.015045356	0.0029	)


);
    }

rR0.9A
    {
        type    cloud;
        axis    xyz;
        points  ((	-0.026053403	0.081433839	0.0029	)
(	-0.027057767	0.081105655	0.0029	)
(	-0.028057999	0.080765083	0.0029	)
(	-0.029053946	0.080412177	0.0029	)
(	-0.030045455	0.08004699	0.0029	)
(	-0.031032376	0.079669578	0.0029	)
(	-0.032014557	0.079279998	0.0029	)
(	-0.032991849	0.078878311	0.0029	)
(	-0.033964102	0.078464576	0.0029	)
(	-0.034931168	0.078038859	0.0029	)
(	-0.0358929	0.077601223	0.0029	)
(	-0.036849149	0.077151735	0.0029	)
(	-0.037799771	0.076690464	0.0029	)
(	-0.03874462	0.076217481	0.0029	)
(	-0.039683552	0.075732858	0.0029	)
(	-0.040616423	0.075236668	0.0029	)
(	-0.041543091	0.074728988	0.0029	)
(	-0.042463414	0.074209895	0.0029	)
(	-0.043377252	0.073679468	0.0029	)
(	-0.044284465	0.073137789	0.0029	)
(	-0.045184915	0.072584939	0.0029	)
(	-0.046078464	0.072021005	0.0029	)
(	-0.046964976	0.071446071	0.0029	)
(	-0.047844315	0.070860225	0.0029	)
(	-0.048716348	0.070263557	0.0029	)
(	-0.04958094	0.069656159	0.0029	)
(	-0.050437959	0.069038122	0.0029	)
(	-0.051287276	0.068409541	0.0029	)
(	-0.05212876	0.067770513	0.0029	)
(	-0.052962283	0.067121134	0.0029	)
(	-0.053787717	0.066461504	0.0029	)
(	-0.054604936	0.065791724	0.0029	)
(	-0.055413816	0.065111896	0.0029	)
(	-0.056214232	0.064422124	0.0029	)
(	-0.057006064	0.063722513	0.0029	)
(	-0.057789189	0.06301317	0.0029	)
(	-0.058563488	0.062294204	0.0029	)
(	-0.059328844	0.061565723	0.0029	)
(	-0.060085138	0.06082784	0.0029	)
(	-0.060832256	0.060080668	0.0029	)
(	-0.061570084	0.059324319	0.0029	)
(	-0.062298508	0.05855891	0.0029	)
(	-0.063017417	0.057784558	0.0029	)
(	-0.063726703	0.05700138	0.0029	)
(	-0.064426255	0.056209498	0.0029	)
(	-0.065115969	0.05540903	0.0029	)
(	-0.065795737	0.0546001	0.0029	)
(	-0.066465457	0.053782832	0.0029	)
(	-0.067125026	0.052957349	0.0029	)
(	-0.067774344	0.052123779	0.0029	)
(	-0.0677213485	0.0521926136	0.0029	)
(	-0.0681003037	0.0516971819	0.0029	)
(	-0.0684756338	0.0511989991	0.0029	)
(	-0.0688473202	0.0506980914	0.0029	)
(	-0.0692153424	0.0501944862	0.0029	)
(	-0.0695796802	0.0496882088	0.0029	)
(	-0.0699403152	0.0491792866	0.0029	)
(	-0.0702972287	0.0486677483	0.0029	)
(	-0.0706503996	0.0481536184	0.0029	)
(	-0.0709998117	0.0476369269	0.0029	)
(	-0.0713454441	0.0471176999	0.0029	)
(	-0.0716872801	0.0465959646	0.0029	)
(	-0.0720253009	0.0460717495	0.0029	)
(	-0.0723594877	0.0455450829	0.0029	)
(	-0.0726898237	0.0450159922	0.0029	)
(	-0.0730162915	0.0444845054	0.0029	)
(	-0.0733388732	0.0439506514	0.0029	)
(	-0.0736575507	0.0434144578	0.0029	)
(	-0.0739723091	0.0428759542	0.0029	)
(	-0.0742831311	0.0423351687	0.0029	)
(	-0.0745899989	0.0417921302	0.0029	)
(	-0.0748928972	0.0412468669	0.0029	)
(	-0.0751918091	0.0406994083	0.0029	)
(	-0.0754867198	0.040149784	0.0029	)
(	-0.0757776123	0.0395980234	0.0029	)
(	-0.0760644729	0.0390441543	0.0029	)
(	-0.0763472844	0.0384882084	0.0029	)
(	-0.0766260331	0.0379302136	0.0029	)
(	-0.0769007036	0.0373702003	0.0029	)
(	-0.0771712808	0.0368081967	0.0029	)
(	-0.0774377517	0.0362442357	0.0029	)
(	-0.077700101	0.0356783454	0.0029	)
(	-0.0779583148	0.0351105559	0.0029	)
(	-0.0782123796	0.0345408988	0.0029	)
(	-0.0784622825	0.0339694022	0.0029	)
(	-0.0787080086	0.0333960981	0.0029	)
(	-0.0789495463	0.0328210166	0.0029	)
(	-0.0791868824	0.0322441883	0.0029	)
(	-0.0794200035	0.0316656447	0.0029	)
(	-0.0796488984	0.0310854152	0.0029	)
(	-0.0798735536	0.030503531	0.0029	)
(	-0.080093959	0.0299200236	0.0029	)
(	-0.0803101004	0.0293349238	0.0029	)
(	-0.0805219686	0.0287482633	0.0029	)
(	-0.0807295511	0.0281600718	0.0029	)
(	-0.080932837	0.0275703823	0.0029	)
(	-0.0811318146	0.0269792251	0.0029	)
(	-0.0813264756	0.0263866322	0.0029	)
(	-0.081516808	0.0257926348	0.0029	)
(	-0.0817028022	0.0251972656	0.0029	)


);
}

rR0.9B
    {
        type    cloud;
        axis    xyz;
        points  ((	-0.0835504748	0.0181540106	0.0029	)
(	-0.0837684411	0.0171201139	0.0029	)
(	-0.0839736131	0.0160836016	0.0029	)
(	-0.0841659611	0.0150446332	0.0029	)
(	-0.0843454543	0.0140033677	0.0029	)
(	-0.0845120665	0.012959963	0.0029	)
(	-0.0846657708	0.0119145793	0.0029	)
(	-0.0848065456	0.0108673761	0.0029	)
(	-0.0849343671	0.0098185129	0.0029	)
(	-0.0850492184	0.0087681506	0.0029	)
(	-0.0851510805	0.0077164483	0.0029	)
(	-0.085239937	0.0066635684	0.0029	)
(	-0.0853157756	0.0056096701	0.0029	)
(	-0.0853785848	0.0045549153	0.0029	)
(	-0.0854283549	0.0034994649	0.0029	)
(	-0.0854650773	0.0024434799	0.0029	)
(	-0.0854887475	0.0013871218	0.0029	)
(	-0.0854993613	0.0003305522	0.0029	)
(	-0.085496917	-0.0007260682	0.0029	)
(	-0.0854814158	-0.0017825772	0.0029	)
(	-0.0854528586	-0.0028388148	0.0029	)
(	-0.0854112519	-0.0038946179	0.0029	)
(	-0.0853566005	-0.0049498268	0.0029	)
(	-0.0852889125	-0.0060042797	0.0029	)
(	-0.0852081993	-0.0070578164	0.0029	)
(	-0.0851144732	-0.0081102741	0.0029	)
(	-0.085007747	-0.0091614928	0.0029	)
(	-0.0848880384	-0.0102113134	0.0029	)
(	-0.0847553659	-0.0112595739	0.0029	)
(	-0.0846097487	-0.0123061155	0.0029	)
(	-0.0844512093	-0.0133507773	0.0029	)
(	-0.0842797723	-0.0143933997	0.0029	)
(	-0.084095464	-0.0154338244	0.0029	)
(	-0.0838983119	-0.016471891	0.0029	)
(	-0.0836883471	-0.0175074431	0.0029	)
(	-0.0834656005	-0.0185403207	0.0029	)
(	-0.0832301072	-0.0195703663	0.0029	)
(	-0.0829819021	-0.0205974246	0.0029	)
(	-0.0827210237	-0.0216213359	0.0029	)
(	-0.0824475128	-0.0226419451	0.0029	)
(	-0.0821614093	-0.0236590974	0.0029	)
(	-0.0818627577	-0.0246726355	0.0029	)
(	-0.0815516037	-0.025682405	0.0029	)
(	-0.0812279946	-0.0266882537	0.0029	)
(	-0.0808919807	-0.0276900245	0.0029	)
(	-0.0805436121	-0.0286875683	0.0029	)
(	-0.0801829421	-0.0296807297	0.0029	)
(	-0.0798100273	-0.0306693582	0.0029	)
(	-0.0794249226	-0.0316533032	0.0029	)
(	-0.0790276888	-0.0326324141	0.0029	)
(	0.011339455	0.084744715	0.0029	)
(	0.010720921	0.084825184	0.0029	)
(	0.010101817	0.084901138	0.0029	)
(	0.009482175	0.084972574	0.0029	)
(	0.008862029	0.085039488	0.0029	)
(	0.008241411	0.085101875	0.0029	)
(	0.007620354	0.085159733	0.0029	)
(	0.006998892	0.08521306	0.0029	)
(	0.006377057	0.08526185	0.0029	)
(	0.005754883	0.085306104	0.0029	)
(	0.005132403	0.085345817	0.0029	)
(	0.004509649	0.085380988	0.0029	)
(	0.003886655	0.085411615	0.0029	)
(	0.003263455	0.085437696	0.0029	)
(	0.002640081	0.08545923	0.0029	)
(	0.002016566	0.085476216	0.0029	)
(	0.001392944	0.085488653	0.0029	)
(	0.000769248	0.085496539	0.0029	)
(	0.000145511	0.085499876	0.0029	)
(	-0.000478234	0.085498663	0.0029	)
(	-0.001101953	0.085492899	0.0029	)
(	-0.001725614	0.085482585	0.0029	)
(	-0.002349183	0.085467721	0.0029	)
(	-0.002972627	0.085448309	0.0029	)
(	-0.003595912	0.085424349	0.0029	)
(	-0.004219007	0.085395843	0.0029	)
(	-0.004841876	0.085362792	0.0029	)
(	-0.005464488	0.085325198	0.0029	)
(	-0.006086809	0.085283063	0.0029	)
(	-0.006708807	0.085236388	0.0029	)
(	-0.007330447	0.085185178	0.0029	)
(	-0.007951697	0.085129434	0.0029	)
(	-0.008572524	0.085069159	0.0029	)
(	-0.009192894	0.085004357	0.0029	)
(	-0.009812776	0.084935031	0.0029	)
(	-0.010432135	0.084861184	0.0029	)
(	-0.011050939	0.084782821	0.0029	)
(	-0.011669155	0.084699946	0.0029	)
(	-0.012286749	0.084612563	0.0029	)
(	-0.01290369	0.084520677	0.0029	)
(	-0.013519944	0.084424292	0.0029	)
(	-0.014135479	0.084323415	0.0029	)
(	-0.014750261	0.084218049	0.0029	)
(	-0.015364258	0.084108202	0.0029	)
(	-0.015977438	0.083993878	0.0029	)
(	-0.016589767	0.083875084	0.0029	)
(	-0.017201213	0.083751825	0.0029	)
(	-0.017811744	0.08362411	0.0029	)
(	-0.018421327	0.083491944	0.0029	)
(	-0.019029929	0.083355335	0.0029	)



);
}


rR1.01
    {
        type    cloud;
        axis    xyz;
        points  ((	0.030228106	0.091064066	0.0029	)
(	0.02926327	0.091378682	0.0029	)
(	0.028295161	0.091683076	0.0029	)
(	0.027323887	0.091977213	0.0029	)
(	0.026349556	0.092261061	0.0029	)
(	0.025372277	0.092534588	0.0029	)
(	0.02439216	0.092797764	0.0029	)
(	0.023409314	0.093050559	0.0029	)
(	0.02242385	0.093292944	0.0029	)
(	0.021435877	0.093524893	0.0029	)
(	0.020445506	0.09374638	0.0029	)
(	0.019452848	0.09395738	0.0029	)
(	0.018458014	0.094157869	0.0029	)
(	0.017461115	0.094347824	0.0029	)
(	0.016462263	0.094527226	0.0029	)
(	0.015461569	0.094696053	0.0029	)
(	0.014459145	0.094854286	0.0029	)
(	0.013455104	0.095001909	0.0029	)
(	0.012449558	0.095138904	0.0029	)
(	0.011442619	0.095265256	0.0029	)
(	0.0104344	0.095380951	0.0029	)
(	0.009425014	0.095485976	0.0029	)
(	0.008414574	0.095580319	0.0029	)
(	0.007403192	0.09566397	0.0029	)
(	0.006390982	0.09573692	0.0029	)
(	0.005378057	0.09579916	0.0029	)
(	0.00436453	0.095850683	0.0029	)
(	0.003350516	0.095891483	0.0029	)
(	0.002336126	0.095921557	0.0029	)
(	0.001321475	0.0959409	0.0029	)
(	0.000306676	0.09594951	0.0029	)
(	-0.000708157	0.095947387	0.0029	)
(	-0.001722911	0.09593453	0.0029	)
(	-0.002737472	0.095910942	0.0029	)
(	-0.003751727	0.095876624	0.0029	)
(	-0.004765562	0.095831581	0.0029	)
(	-0.005778864	0.095775818	0.0029	)
(	-0.00679152	0.09570934	0.0029	)
(	-0.007803416	0.095632156	0.0029	)
(	-0.008814439	0.095544273	0.0029	)
(	-0.009824476	0.095445703	0.0029	)
(	-0.010833414	0.095336455	0.0029	)
(	-0.01184114	0.095216542	0.0029	)
(	-0.012847541	0.095085978	0.0029	)
(	-0.013852505	0.094944777	0.0029	)
(	-0.01485592	0.094792954	0.0029	)
(	-0.015857672	0.094630527	0.0029	)
(	-0.016857651	0.094457515	0.0029	)
(	-0.017855744	0.094273936	0.0029	)
(	-0.018851839	0.09407981	0.0029	)
(	-0.019845826	0.09387516	0.0029	)
(	-0.020837592	0.093660009	0.0029	)
(	-0.021827027	0.09343438	0.0029	)
(	-0.022814021	0.093198299	0.0029	)
(	-0.023798463	0.092951792	0.0029	)
(	-0.024780242	0.092694887	0.0029	)
(	-0.025759249	0.092427613	0.0029	)
(	-0.026735375	0.092149999	0.0029	)
(	-0.02770851	0.091862076	0.0029	)
(	-0.028678545	0.091563877	0.0029	)
(	-0.029645372	0.091255435	0.0029	)
(	-0.030608882	0.090936785	0.0029	)
(	-0.031568969	0.090607962	0.0029	)
(	-0.032525524	0.090269002	0.0029	)
(	-0.03347844	0.089919945	0.0029	)
(	-0.034427611	0.089560829	0.0029	)
(	-0.035372931	0.089191694	0.0029	)
(	-0.036314294	0.088812581	0.0029	)
(	-0.037251595	0.088423533	0.0029	)
(	-0.038184728	0.088024593	0.0029	)
(	-0.03911359	0.087615807	0.0029	)
(	-0.040038076	0.087197219	0.0029	)
(	-0.040958084	0.086768876	0.0029	)
(	-0.041873509	0.086330827	0.0029	)
(	-0.04278425	0.085883121	0.0029	)
(	-0.043690206	0.085425807	0.0029	)
(	-0.044591273	0.084958936	0.0029	)
(	-0.045487352	0.084482562	0.0029	)
(	-0.046378343	0.083996737	0.0029	)
(	-0.047264146	0.083501515	0.0029	)
(	-0.048144661	0.082996952	0.0029	)
(	-0.049019791	0.082483105	0.0029	)
(	-0.049889437	0.081960031	0.0029	)
(	-0.050753501	0.081427788	0.0029	)
(	-0.051611889	0.080886435	0.0029	)
(	-0.052464502	0.080336035	0.0029	)
(	-0.053311247	0.079776647	0.0029	)
(	-0.054152028	0.079208335	0.0029	)
(	-0.054986751	0.078631163	0.0029	)
(	-0.055815322	0.078045194	0.0029	)
(	-0.05663765	0.077450494	0.0029	)
(	-0.057453642	0.076847131	0.0029	)
(	-0.058263207	0.07623517	0.0029	)
(	-0.059066254	0.075614682	0.0029	)
(	-0.059862694	0.074985734	0.0029	)
(	-0.060652437	0.074348399	0.0029	)
(	-0.061435395	0.073702746	0.0029	)
(	-0.06221148	0.073048848	0.0029	)
(	-0.062980606	0.072386779	0.0029	)
(	-0.063742687	0.071716612	0.0029	)
(	-0.0637497415	0.0717103407	0.0029	)
(	-0.064504625	0.0710320762	0.0029	)
(	-0.0652522924	0.0703458662	0.0029	)
(	-0.0659926595	0.0696517868	0.0029	)
(	-0.0667256446	0.0689499154	0.0029	)
(	-0.0674511654	0.0682403304	0.0029	)
(	-0.068169141	0.0675231122	0.0029	)
(	-0.0688794909	0.0667983401	0.0029	)
(	-0.0695821345	0.0660660958	0.0029	)
(	-0.0702769947	0.0653264605	0.0029	)
(	-0.0709639936	0.0645795176	0.0029	)
(	-0.071643054	0.0638253505	0.0029	)
(	-0.0723140995	0.0630640435	0.0029	)
(	-0.0729770549	0.0622956812	0.0029	)
(	-0.0736318476	0.061520351	0.0029	)
(	-0.074278403	0.060738138	0.0029	)
(	-0.0749166488	0.0599491299	0.0029	)
(	-0.0755465146	0.0591534164	0.0029	)
(	-0.0761679288	0.0583510855	0.0029	)
(	-0.0767808223	0.0575422267	0.0029	)
(	-0.0773851266	0.056726931	0.0029	)
(	-0.0779807739	0.0559052896	0.0029	)
(	-0.0785676974	0.0550773943	0.0029	)
(	-0.0791458322	0.0542433373	0.0029	)
(	-0.0797151138	0.0534032128	0.0029	)
(	-0.0802754777	0.052557114	0.0029	)
(	-0.0808268614	0.0517051354	0.0029	)
(	-0.0813692023	0.0508473735	0.0029	)
(	-0.0819024421	0.049983923	0.0029	)
(	-0.0824265192	0.0491148809	0.0029	)
(	-0.0829413751	0.0482403442	0.0029	)
(	-0.0834469531	0.0473604115	0.0029	)
(	-0.0839431956	0.0464751803	0.0029	)
(	-0.0844300483	0.0455847507	0.0029	)
(	-0.0849074555	0.0446892211	0.0029	)
(	-0.0853753646	0.0437886927	0.0029	)
(	-0.0858337235	0.042883266	0.0029	)
(	-0.0862824798	0.0419730411	0.0029	)
(	-0.0867215845	0.0410581215	0.0029	)
(	-0.0871509871	0.0401386084	0.0029	)
(	-0.0875706415	0.0392146057	0.0029	)
(	-0.0879804989	0.0382862158	0.0029	)
(	-0.0883805142	0.037353543	0.0029	)
(	-0.088770643	0.0364166921	0.0029	)
(	-0.0891508413	0.0354757673	0.0029	)
(	-0.0895210663	0.0345308729	0.0029	)
(	-0.0898812764	0.0335821167	0.0029	)
(	-0.0902314331	0.0326296035	0.0029	)
(	-0.0905714955	0.0316734401	0.0029	)
(	-0.0909014249	0.0307137335	0.0029	)
(	-0.0912211863	0.0297505905	0.0029	)
(	-0.0915307431	0.0287841205	0.0029	)
(	-0.0918300602	0.0278144301	0.0029	)
(	-0.092119105	0.0268416278	0.0029	)
(	-0.0923978447	0.0258658225	0.0029	)
(	-0.0926662479	0.0248871244	0.0029	)
(	-0.0929242854	0.0239056425	0.0029	)
(	-0.0931719276	0.0229214856	0.0029	)
(	-0.0934091465	0.0219347644	0.0029	)
(	-0.0936359161	0.02094559	0.0029	)
(	-0.0938522109	0.0199540722	0.0029	)
(	-0.0940580069	0.0189603231	0.0029	)
(	-0.0942532814	0.0179644519	0.0029	)
(	-0.0944380109	0.0169665709	0.0029	)
(	-0.0946121767	0.015966793	0.0029	)
(	-0.0947757586	0.0149652288	0.0029	)
(	-0.0949287383	0.0139619901	0.0029	)
(	-0.0950710983	0.0129571894	0.0029	)
(	-0.0952028234	0.0119509389	0.0029	)
(	-0.0953238977	0.010943352	0.0029	)
(	-0.0954343096	0.0099345409	0.0029	)
(	-0.0955340448	0.0089246186	0.0029	)
(	-0.0956230929	0.0079136968	0.0029	)
(	-0.0957014438	0.006901891	0.0029	)
(	-0.0957690895	0.0058893131	0.0029	)
(	-0.095826022	0.0048760752	0.0029	)
(	-0.0958722334	0.0038622928	0.0029	)
(	-0.0959077209	0.0028480786	0.0029	)
(	-0.0959324796	0.0018335453	0.0029	)
(	-0.0959465062	0.0008188064	0.0029	)
(	-0.0959497994	-0.0001960235	0.0029	)
(	-0.0959423598	-0.0012108318	0.0029	)
(	-0.0959241874	-0.0022255043	0.0029	)
(	-0.0958952835	-0.0032399272	0.0029	)
(	-0.095855652	-0.0042539895	0.0029	)
(	-0.0958052981	-0.005267574	0.0029	)
(	-0.0957442264	-0.0062805707	0.0029	)
(	-0.0956724443	-0.0072928644	0.0029	)
(	-0.0955899602	-0.0083043417	0.0029	)
(	-0.0954967816	-0.0093148898	0.0029	)
(	-0.0953929203	-0.0103243967	0.0029	)
(	-0.0952783887	-0.011332748	0.0029	)
(	-0.0951531974	-0.0123398324	0.0029	)
(	-0.0950173625	-0.0133455355	0.0029	)
(	-0.0948708976	-0.0143497467	0.0029	)
(	-0.0947138208	-0.0153523517	0.0029	)
(	-0.0945461479	-0.0163532398	0.0029	)
(	-0.0943678981	-0.0173522981	0.0029	)
(	-0.0941790925	-0.0183494152	0.0029	)
(	-0.0939797514	-0.0193444802	0.0029	)

);
}
rR0.65
    {
        type    cloud;
        axis    xyz;
        points  ((	-0.048800728	0.037835849	0.0029	)
(	-0.049202479	0.037311909	0.0029	)
(	-0.049598606	0.036783703	0.0029	)
(	-0.049989062	0.036251292	0.0029	)
(	-0.050373804	0.035714736	0.0029	)
(	-0.050752787	0.035174098	0.0029	)
(	-0.051125967	0.034629438	0.0029	)
(	-0.051493303	0.03408082	0.0029	)
(	-0.051854752	0.033528305	0.0029	)
(	-0.052210273	0.032971957	0.0029	)
(	-0.052559824	0.03241184	0.0029	)
(	-0.052903368	0.031848017	0.0029	)
(	-0.053240863	0.031280554	0.0029	)
(	-0.053572271	0.030709514	0.0029	)
(	-0.053897555	0.030134963	0.0029	)
(	-0.054216678	0.029556968	0.0029	)
(	-0.054529602	0.028975593	0.0029	)
(	-0.054836292	0.028390906	0.0029	)
(	-0.055136713	0.027802974	0.0029	)
(	-0.055430831	0.027211862	0.0029	)
(	-0.055718612	0.02661764	0.0029	)
(	-0.056000023	0.026020375	0.0029	)
(	-0.056275032	0.025420135	0.0029	)
(	-0.056543608	0.024816989	0.0029	)
(	-0.056805719	0.024211006	0.0029	)
(	-0.057061336	0.023602255	0.0029	)
(	-0.05731043	0.022990806	0.0029	)
(	-0.057552972	0.022376728	0.0029	)
(	-0.057788934	0.021760092	0.0029	)
(	-0.05801829	0.021140969	0.0029	)
(	-0.058241013	0.020519428	0.0029	)
(	-0.058457077	0.019895542	0.0029	)
(	-0.058666459	0.019269382	0.0029	)
(	-0.058869134	0.018641018	0.0029	)
(	-0.059065079	0.018010523	0.0029	)
(	-0.059254271	0.01737797	0.0029	)
(	-0.05943669	0.01674343	0.0029	)
(	-0.059612313	0.016106975	0.0029	)
(	-0.059781121	0.015468679	0.0029	)
(	-0.059943095	0.014828615	0.0029	)
(	-0.060098217	0.014186855	0.0029	)
(	-0.060246467	0.013543474	0.0029	)
(	-0.06038783	0.012898544	0.0029	)
(	-0.06052229	0.01225214	0.0029	)
(	-0.06064983	0.011604335	0.0029	)
(	-0.060770437	0.010955203	0.0029	)
(	-0.060884096	0.010304819	0.0029	)
(	-0.060990795	0.009653257	0.0029	)
(	-0.061090522	0.009000591	0.0029	)
(	-0.061183264	0.008346897	0.0029	)
(	-0.023343543	0.057167661	0.0029	)
(	-0.02384361	0.056960906	0.0029	)
(	-0.024341845	0.056749776	0.0029	)
(	-0.024838211	0.056534288	0.0029	)
(	-0.02533267	0.056314459	0.0029	)
(	-0.025825184	0.056090306	0.0029	)
(	-0.026315714	0.055861845	0.0029	)
(	-0.026804223	0.055629094	0.0029	)
(	-0.027290674	0.055392072	0.0029	)
(	-0.02777503	0.055150795	0.0029	)
(	-0.028257252	0.054905284	0.0029	)
(	-0.028737305	0.054655556	0.0029	)
(	-0.029215151	0.054401631	0.0029	)
(	-0.029690753	0.054143529	0.0029	)
(	-0.030164075	0.053881268	0.0029	)
(	-0.030635081	0.05361487	0.0029	)
(	-0.031103734	0.053344355	0.0029	)
(	-0.031569999	0.053069743	0.0029	)
(	-0.032033839	0.052791056	0.0029	)
(	-0.03249522	0.052508316	0.0029	)
(	-0.032954105	0.052221542	0.0029	)
(	-0.033410459	0.051930759	0.0029	)
(	-0.033864248	0.051635988	0.0029	)
(	-0.034315436	0.051337251	0.0029	)
(	-0.034763989	0.051034572	0.0029	)
(	-0.035209873	0.050727974	0.0029	)
(	-0.035653052	0.050417481	0.0029	)
(	-0.036093494	0.050103116	0.0029	)
(	-0.036531164	0.049784903	0.0029	)
(	-0.036966029	0.049462867	0.0029	)
(	-0.037398055	0.049137033	0.0029	)
(	-0.037827209	0.048807425	0.0029	)
(	-0.038253458	0.04847407	0.0029	)
(	-0.03867677	0.048136992	0.0029	)
(	-0.039097111	0.047796217	0.0029	)
(	-0.039514451	0.047451772	0.0029	)
(	-0.039928756	0.047103683	0.0029	)
(	-0.040339994	0.046751977	0.0029	)
(	-0.040748135	0.046396681	0.0029	)
(	-0.041153147	0.046037822	0.0029	)
(	-0.041554998	0.045675427	0.0029	)
(	-0.041953658	0.045309525	0.0029	)
(	-0.042349097	0.044940143	0.0029	)
(	-0.042741283	0.044567311	0.0029	)
(	-0.043130188	0.044191056	0.0029	)
(	-0.04351578	0.043811407	0.0029	)
(	-0.04389803	0.043428394	0.0029	)
(	-0.04427691	0.043042046	0.0029	)
(	-0.044652389	0.042652393	0.0029	)
(	-0.04502444	0.042259465	0.0029	)
(	-0.0571671704	-0.0233447457	0.0029	)
(	-0.0569143006	-0.0239546422	0.0029	)
(	-0.0566549242	-0.0245618013	0.0029	)
(	-0.0563890708	-0.0251661516	0.0029	)
(	-0.0561167707	-0.0257676259	0.0029	)
(	-0.0558380559	-0.0263661539	0.0029	)
(	-0.0555529565	-0.0269616672	0.0029	)
(	-0.0552615074	-0.0275540985	0.0029	)
(	-0.0549637399	-0.02814338	0.0029	)
(	-0.0546596889	-0.0287294443	0.0029	)
(	-0.0543493888	-0.0293122228	0.0029	)
(	-0.0540328758	-0.0298916521	0.0029	)